@<TRIPOS>MOLECULE
*****
 283 285 0 0 0
SMALL
GASTEIGER

@<TRIPOS>ATOM
      1 N           0.6937   -1.9145    5.8341 N.4     1  THR1        0.2292
      2 CA          0.4253   -0.7889    6.8040 C.3     1  THR1        0.0792
      3 C           1.5783    0.2455    6.8086 C.2     1  THR1        0.2643
      4 O           1.3740    1.4509    6.6558 O.2     1  THR1       -0.2695
      5 N           2.8262   -0.2974    6.9802 N.am    2  SER2       -0.2974
      6 CA          4.0894    0.4577    6.8623 C.3     2  SER2        0.1227
      7 C           5.0507   -0.4620    6.0625 C.2     2  SER2        0.2362
      8 O           4.5823   -1.3994    5.4145 O.2     2  SER2       -0.2737
      9 N           6.3747   -0.1169    6.1007 N.am    3  ILE3       -0.3022
     10 CA          7.4290   -0.6564    5.2192 C.3     3  ILE3        0.1020
     11 C           7.3697    0.1106    3.8776 C.2     3  ILE3        0.2343
     12 O           6.9417    1.2686    3.8444 O.2     3  ILE3       -0.2738
     13 N           7.9574   -0.4731    2.7852 N.am    4  THR4       -0.3003
     14 CA          8.0452    0.2263    1.5050 C.3     4  THR4        0.1252
     15 C           6.6538    0.3682    0.8387 C.2     4  THR4        0.2365
     16 O           5.6443   -0.2123    1.2397 O.2     4  THR4       -0.2737
     17 N           6.6215    1.2707   -0.2096 N.am    5  SER5       -0.3005
     18 CA          5.3583    1.7447   -0.7648 C.3     5  SER5        0.1226
     19 C           5.0759    1.1465   -2.1465 C.2     5  SER5        0.2362
     20 O           5.8400    1.2995   -3.0992 O.2     5  SER5       -0.2737
     21 N           3.8667    0.4976   -2.2392 N.am    6  ALA6       -0.3027
     22 CA          3.2234    0.1475   -3.5045 C.3     6  ALA6        0.0966
     23 C           1.7061    0.0436   -3.2214 C.2     6  ALA6        0.2337
     24 O           1.2375    0.1791   -2.0828 O.2     6  ALA6       -0.2738
     25 N           0.9075   -0.1643   -4.3185 N.am    7  VAL7       -0.3022
     26 CA         -0.5121   -0.5055   -4.1961 C.3     7  VAL7        0.1017
     27 C          -0.6900   -1.9182   -4.7892 C.2     7  VAL7        0.2342
     28 O           0.1318   -2.4103   -5.5634 O.2     7  VAL7       -0.2738
     29 N          -1.8407   -2.5712   -4.3987 N.am    8  LEU8       -0.3025
     30 CA         -2.2827   -3.7819   -5.0906 C.3     8  LEU8        0.0996
     31 C          -3.5302   -3.3614   -5.8928 C.2     8  LEU8        0.2340
     32 O          -4.4170   -2.6719   -5.3958 O.2     8  LEU8       -0.2738
     33 N          -3.5737   -3.8257   -7.1835 N.am    9  GLN9       -0.3025
     34 CA         -4.6308   -3.4832   -8.1375 C.3     9  GLN9        0.0999
     35 C          -4.6630   -1.9686   -8.4588 C.2     9  GLN9        0.2340
     36 O          -4.0505   -1.5021   -9.4193 O.2     9  GLN9       -0.2738
     37 N          -5.3640   -1.1824   -7.5851 N.am   10  SER10      -0.3006
     38 CA         -5.4941    0.2722   -7.7190 C.3    10  SER10       0.1226
     39 C          -6.3837    0.7820   -6.5661 C.2    10  SER10       0.2360
     40 O          -6.8949    0.0254   -5.7388 O.2    10  SER10      -0.2737
     41 N          -6.5686    2.1419   -6.5313 N.am   11  GLY11      -0.3051
     42 CA         -7.3060    2.7784   -5.4566 C.3    11  GLY11       0.0882
     43 C          -6.3484    3.3744   -4.4255 C.2    11  GLY11       0.2308
     44 O          -5.1285    3.2589   -4.4972 O.2    11  GLY11      -0.2741
     45 N          -6.9768    4.0822   -3.4282 N.am   12  PHE12      -0.3024
     46 CA         -6.2312    4.9685   -2.5455 C.3    12  PHE12       0.1033
     47 C          -6.8092    4.8238   -1.1301 C.2    12  PHE12       0.2343
     48 O          -8.0123    4.9195   -0.8929 O.2    12  PHE12      -0.2738
     49 N          -5.8686    4.5934   -0.1476 N.am   13  ARG13      -0.3025
     50 CA         -6.2094    4.6325    1.2773 C.3    13  ARG13       0.0995
     51 C          -4.8590    4.7095    2.0033 C.2    13  ARG13       0.2339
     52 O          -4.4931    5.6934    2.6443 O.2    13  ARG13      -0.2738
     53 N          -4.0397    3.6090    1.8172 N.am   14  LYS14      -0.3025
     54 CA         -2.6235    3.7182    2.1363 C.3    14  LYS14       0.0994
     55 C          -1.8635    2.7011    1.2400 C.2    14  LYS14       0.2339
     56 O          -2.3901    2.1562    0.2759 O.2    14  LYS14      -0.2738
     57 N          -0.5431    2.5450    1.5725 N.am   15  MET15      -0.3024
     58 CA          0.3805    1.7286    0.7786 C.3    15  MET15       0.1002
     59 C           0.4408    0.2982    1.3600 C.2    15  MET15       0.2340
     60 O           0.1492    0.0509    2.5336 O.2    15  MET15      -0.2738
     61 N           0.9480   -0.6390    0.5028 N.am   16  ALA16      -0.3027
     62 CA          1.1279   -2.0366    0.8522 C.3    16  ALA16       0.0966
     63 C           2.3913   -2.5990    0.1803 C.2    16  ALA16       0.2337
     64 O           2.8603   -2.1424   -0.8604 O.2    16  ALA16      -0.2738
     65 N           2.9123   -3.6848    0.8379 N.am   17  PHE17      -0.3022
     66 CA          4.0078   -4.5465    0.3497 C.3    17  PHE17       0.1036
     67 C           4.0727   -5.6647    1.4136 C.2    17  PHE17       0.2366
     68 O           3.6170   -5.4309    2.5491 O.2    17  PHE17      -0.2735
     69 N           4.6779   -6.8641    1.1406 N.am   18  PRO18      -0.2921
     70 CD          4.8930   -7.8263    2.2105 C.3    18  PRO18       0.0153
     71 CG          5.5494   -9.0385    1.5665 C.3    18  PRO18      -0.0353
     72 CB          6.1861   -8.4613    0.3062 C.3    18  PRO18      -0.0282
     73 CA          5.1959   -7.3820   -0.1468 C.3    18  PRO18       0.0766
     74 C           4.1145   -7.9564   -1.1199 C.3    18  PRO18       0.1720
     75 O           3.2712   -6.9266   -1.5942 O.3    18  PRO18      -0.3656
     76 OXT         3.3009   -8.9280   -0.4956 O.3    18  PRO18      -0.3656
     77 CB          5.3518   -3.7921    0.2558 C.3    17  PHE17      -0.0007
     78 CG          6.1325   -4.0031   -1.0227 C.ar   17  PHE17      -0.0451
     79 CD1         7.5113   -4.2488   -0.9748 C.ar   17  PHE17      -0.0585
     80 CE1         8.2585   -4.3653   -2.1452 C.ar   17  PHE17      -0.0615
     81 CZ          7.6403   -4.2477   -3.3843 C.ar   17  PHE17      -0.0617
     82 CE2         6.2668   -4.0221   -3.4518 C.ar   17  PHE17      -0.0615
     83 CD2         5.5204   -3.8952   -2.2822 C.ar   17  PHE17      -0.0585
     84 CB         -0.0916   -2.8523    0.4341 C.3    16  ALA16      -0.0381
     85 CB          1.7731    2.3851    0.8049 C.3    15  MET15      -0.0169
     86 CG          2.4006    2.3629    2.2083 C.3    15  MET15      -0.0044
     87 SD          3.7626    3.5226    2.5265 S.3    15  MET15      -0.1641
     88 CE          2.9923    5.0914    2.0525 C.3    15  MET15      -0.0181
     89 CB         -2.3707    3.5311    3.6433 C.3    14  LYS14      -0.0258
     90 CG         -1.2493    4.4549    4.1493 C.3    14  LYS14      -0.0461
     91 CD         -0.6451    3.9458    5.4558 C.3    14  LYS14      -0.0126
     92 CE          0.5783    4.7589    5.8658 C.3    14  LYS14      -0.0354
     93 NZ          1.2121    4.1187    7.0389 N.4    14  LYS14       0.2185
     94 CB         -7.0455    3.4219    1.7199 C.3    13  ARG13      -0.0248
     95 CG         -7.2974    3.3468    3.2306 C.3    13  ARG13      -0.0379
     96 CD         -8.1613    4.4895    3.7704 C.3    13  ARG13       0.0062
     97 NE         -8.2986    4.3108    5.2104 N.3    13  ARG13      -0.2307
     98 CZ         -9.1308    5.2008    5.9529 C.3    13  ARG13       0.1111
     99 NH1        -8.5062    6.4698    5.9914 N.4    13  ARG13       0.3683
    100 NH2       -10.3993    5.3713    5.3612 N.4    13  ARG13       0.3683
    101 CB         -6.3440    6.4495   -2.9675 C.3    12  PHE12      -0.0007
    102 CG         -6.0458    6.6997   -4.4274 C.ar   12  PHE12      -0.0451
    103 CD1        -4.7548    6.5409   -4.9404 C.ar   12  PHE12      -0.0585
    104 CE1        -4.5061    6.7212   -6.2993 C.ar   12  PHE12      -0.0615
    105 CZ         -5.5463    7.0653   -7.1585 C.ar   12  PHE12      -0.0617
    106 CE2        -6.8305    7.2422   -6.6614 C.ar   12  PHE12      -0.0615
    107 CD2        -7.0803    7.0620   -5.3009 C.ar   12  PHE12      -0.0585
    108 CB         -6.0808    0.6868   -9.0838 C.3    10  SER10       0.0711
    109 OG         -5.0324    0.8805  -10.0409 O.3    10  SER10      -0.3927
    110 CB         -5.9969   -4.1673   -7.9459 C.3     9  GLN9       -0.0177
    111 CG         -6.7326   -3.9644   -6.6244 C.3     9  GLN9        0.0259
    112 CD         -8.1273   -4.5445   -6.6461 C.2     9  GLN9        0.2106
    113 OE1        -8.6402   -5.0853   -7.6167 O.2     9  GLN9       -0.2760
    114 NE2        -8.7935   -4.4106   -5.4595 N.am    9  GLN9       -0.3293
    115 CB         -2.6298   -4.8828   -4.0816 C.3     8  LEU8       -0.0236
    116 CG         -2.9326   -6.2682   -4.6978 C.3     8  LEU8       -0.0446
    117 CD1        -3.2869   -7.2558   -3.5815 C.3     8  LEU8       -0.0626
    118 CD2        -1.7562   -6.8166   -5.5104 C.3     8  LEU8       -0.0626
    119 CB         -1.4423    0.5187   -4.8799 C.3     7  VAL7       -0.0197
    120 CG1        -1.1474    0.7035   -6.3711 C.3     7  VAL7       -0.0605
    121 CG2        -1.3976    1.8725   -4.1664 C.3     7  VAL7       -0.0605
    122 CB          3.7710   -1.1449   -4.0885 C.3     6  ALA6       -0.0381
    123 CB          5.3864    3.2771   -0.9168 C.3     5  SER5        0.0711
    124 OG          4.1011    3.8029   -1.2370 O.3     5  SER5       -0.3927
    125 CB          9.0498   -0.4834    0.5725 C.3     4  THR4        0.0792
    126 OG1         8.8728   -1.9020    0.6847 O.3     4  THR4       -0.3897
    127 CG2        10.4952   -0.1698    0.9600 C.3     4  THR4       -0.0367
    128 CB          7.7279   -2.1737    5.2257 C.3     3  ILE3       -0.0171
    129 CG2         7.9823   -2.6728    6.6594 C.3     3  ILE3       -0.0603
    130 CG1         6.7157   -3.0843    4.5079 C.3     3  ILE3       -0.0512
    131 CD1         7.3770   -4.3468    3.9583 C.3     3  ILE3       -0.0650
    132 CB          4.6008    0.8447    8.2553 C.3     2  SER2        0.0711
    133 OG          3.6683    1.7476    8.8724 O.3     2  SER2       -0.3927
    134 CB          0.2460   -1.4043    8.2148 C.3     1  THR1        0.1034
    135 OG1         1.0525   -2.5985    8.2819 O.3     1  THR1       -0.3860
    136 CG2        -1.2023   -1.7881    8.5016 C.3     1  THR1       -0.0331
    137 H1          1.3455   -1.6675    5.0636 H       1  THR1        0.2003
    138 H2         -0.1620   -2.2676    5.3957 H       1  THR1        0.2003
    139 H3          1.1209   -2.7051    6.3574 H       1  THR1        0.2003
    140 HA         -0.4714   -0.2668    6.4518 H       1  THR1        0.0975
    141 H           2.9438   -1.3023    7.1252 H       2  SER2        0.1497
    142 HA          3.8951    1.3566    6.2626 H       2  SER2        0.0618
    143 H           6.5429    0.8654    6.2765 H       3  ILE3        0.1495
    144 HA          8.3357   -0.2148    5.6735 H       3  ILE3        0.0597
    145 H           7.9705   -1.4865    2.7012 H       4  THR4        0.1496
    146 HA          8.3858    1.2523    1.7115 H       4  THR4        0.0621
    147 H           7.4657    1.5260   -0.7035 H       5  SER5        0.1496
    148 HA          4.5492    1.4752   -0.0834 H       5  SER5        0.0618
    149 H           3.4904    0.0390   -1.4127 H       6  ALA6        0.1495
    150 HA          3.3881    0.9754   -4.2065 H       6  ALA6        0.0592
    151 H           1.3477   -0.4768   -5.1795 H       7  VAL7        0.1495
    152 HA         -0.7740   -0.5739   -3.1328 H       7  VAL7        0.0597
    153 H          -2.5656   -2.0434   -3.9260 H       8  LEU8        0.1495
    154 HA         -1.4994   -4.1090   -5.7742 H       8  LEU8        0.0594
    155 H          -2.6751   -4.0259   -7.6081 H       9  GLN9        0.1495
    156 HA         -4.2520   -3.9179   -9.0758 H       9  GLN9        0.0595
    157 H          -5.4108   -1.5219   -6.6265 H      10  SER10       0.1496
    158 HA         -4.4870    0.6863   -7.5832 H      10  SER10       0.0618
    159 H          -5.8991    2.7287   -7.0190 H      11  GLY11       0.1492
    160 HA1        -7.8836    3.5906   -5.9087 H      11  GLY11       0.0558
    161 HA2        -7.9804    2.0683   -4.9704 H      11  GLY11       0.0558
    162 H          -7.9921    4.1506   -3.4057 H      12  PHE12       0.1495
    163 HA         -5.1734    4.6717   -2.5422 H      12  PHE12       0.0598
    164 H          -4.8906    4.6345   -0.4114 H      13  ARG13       0.1495
    165 HA         -6.7581    5.5651    1.4585 H      13  ARG13       0.0594
    166 H          -4.2868    2.9658    1.0681 H      14  LYS14       0.1495
    167 HA         -2.2956    4.7159    1.8135 H      14  LYS14       0.0594
    168 H          -0.3581    2.5046    2.5644 H      15  MET15       0.1495
    169 HA          0.0072    1.6851   -0.2463 H      15  MET15       0.0595
    170 H           1.0938   -0.3936   -0.4897 H      16  ALA16       0.1495
    171 HA          1.2567   -2.1026    1.9393 H      16  ALA16       0.0592
    172 H           2.4920   -4.0098    1.7062 H      17  PHE17       0.1495
    173 HA          3.6669   -4.9339   -0.6050 H      17  PHE17       0.0598
    174 HD1         3.9395   -8.0781    2.6870 H      18  PRO18       0.0465
    175 HD2         5.5531   -7.3687    2.9532 H      18  PRO18       0.0465
    176 HG1         6.2694   -9.5243    2.2277 H      18  PRO18       0.0281
    177 HG2         4.7888   -9.7830    1.3072 H      18  PRO18       0.0281
    178 HB1         7.1432   -7.9935    0.5784 H      18  PRO18       0.0285
    179 HB2         6.3804   -9.2236   -0.4533 H      18  PRO18       0.0285
    180 HA          5.7181   -6.5755   -0.6585 H      18  PRO18       0.0550
    181 H           4.6310   -8.4108   -1.9751 H      18  PRO18       0.0925
    182 H           3.0443   -7.1452   -2.5113 H      18  PRO18       0.2125
    183 HXT         2.9404   -9.4785   -1.2127 H      18  PRO18       0.2125
    184 HB1         5.1914   -2.7076    0.3460 H      17  PHE17       0.0336
    185 HB2         5.9838   -4.0643    1.1140 H      17  PHE17       0.0336
    186 HD1         8.0112   -4.3464   -0.0112 H      17  PHE17       0.0620
    187 HE1         9.3298   -4.5518   -2.0942 H      17  PHE17       0.0618
    188 HZ          8.2194   -4.3182   -4.3001 H      17  PHE17       0.0618
    189 HE2         5.7753   -3.9378   -4.4219 H      17  PHE17       0.0618
    190 HD2         4.4549   -3.6974   -2.3574 H      17  PHE17       0.0620
    191 HB1        -0.1867   -2.8748   -0.6580 H      16  ALA16       0.0252
    192 HB2        -0.0124   -3.8870    0.7779 H      16  ALA16       0.0252
    193 HB3        -1.0131   -2.4253    0.8399 H      16  ALA16       0.0252
    194 HB1         2.4300    1.8485    0.1132 H      15  MET15       0.0296
    195 HB2         1.6635    3.4085    0.4272 H      15  MET15       0.0296
    196 HG1         1.6626    2.5712    2.9877 H      15  MET15       0.0377
    197 HG2         2.7953    1.3608    2.4131 H      15  MET15       0.0377
    198 HE1         2.8642    5.1626    0.9724 H      15  MET15       0.0340
    199 HE2         3.6368    5.9130    2.3751 H      15  MET15       0.0340
    200 HE3         2.0267    5.2031    2.5504 H      15  MET15       0.0340
    201 HB1        -2.1334    2.4773    3.8548 H      14  LYS14       0.0288
    202 HB2        -3.2797    3.7518    4.2208 H      14  LYS14       0.0288
    203 HG1        -0.4574    4.5516    3.3998 H      14  LYS14       0.0268
    204 HG2        -1.6561    5.4645    4.2946 H      14  LYS14       0.0268
    205 HD1        -0.3573    2.8943    5.3243 H      14  LYS14       0.0317
    206 HD2        -1.3968    3.9715    6.2534 H      14  LYS14       0.0317
    207 HE1         0.3143    5.7839    6.1515 H      14  LYS14       0.0813
    208 HE2         1.3376    4.7851    5.0768 H      14  LYS14       0.0813
    209 HZ1         2.1139    4.5634    7.2773 H      14  LYS14       0.1994
    210 HZ2         1.4239    3.1146    6.8663 H      14  LYS14       0.1994
    211 HZ3         0.6167    4.1583    7.8727 H      14  LYS14       0.1994
    212 HB1        -8.0106    3.4202    1.1988 H      13  ARG13       0.0288
    213 HB2        -6.5495    2.4941    1.4021 H      13  ARG13       0.0288
    214 HG1        -7.7963    2.3909    3.4436 H      13  ARG13       0.0278
    215 HG2        -6.3336    3.3138    3.7562 H      13  ARG13       0.0278
    216 HD1        -7.6980    5.4529    3.5437 H      13  ARG13       0.0428
    217 HD2        -9.1332    4.4439    3.2644 H      13  ARG13       0.0428
    218 HE         -7.3822    4.3793    5.6425 H      13  ARG13       0.1329
    219 HZ         -9.2412    4.8053    6.9690 H      13  ARG13       0.1714
    220 HH11       -9.0400    7.0723    6.6096 H      13  ARG13       0.2426
    221 HH12       -8.5653    6.8922    5.0713 H      13  ARG13       0.2426
    222 HH21      -10.9875    5.9339    5.9651 H      13  ARG13       0.2426
    223 HH22      -10.3259    5.8572    4.4771 H      13  ARG13       0.2426
    224 HB1        -5.6637    7.0563   -2.3566 H      12  PHE12       0.0336
    225 HB2        -7.3521    6.8237   -2.7370 H      12  PHE12       0.0336
    226 HD1        -3.9290    6.2578   -4.2878 H      12  PHE12       0.0620
    227 HE1        -3.4994    6.5905   -6.6936 H      12  PHE12       0.0618
    228 HZ         -5.3545    7.1897   -8.2231 H      12  PHE12       0.0618
    229 HE2        -7.6429    7.5242   -7.3300 H      12  PHE12       0.0618
    230 HD2        -8.0945    7.1961   -4.9313 H      12  PHE12       0.0620
    231 HB1        -6.6229    1.6383   -9.0357 H      10  SER10       0.0580
    232 HB2        -6.7767   -0.0666   -9.4761 H      10  SER10       0.0580
    233 H          -4.5353    0.0278  -10.0874 H      10  SER10       0.2095
    234 HB1        -5.8601   -5.2481   -8.0784 H       9  GLN9        0.0292
    235 HB2        -6.6481   -3.8352   -8.7659 H       9  GLN9        0.0292
    236 HG1        -6.1788   -4.4434   -5.8111 H       9  GLN9        0.0359
    237 HG2        -6.8553   -2.9057   -6.3988 H       9  GLN9        0.0359
    238 HE21       -8.4449   -3.8267   -4.7118 H       9  GLN9        0.1449
    239 HE22       -9.7559   -4.7223   -5.4201 H       9  GLN9        0.1449
    240 HB1        -3.4929   -4.5611   -3.4816 H       8  LEU8        0.0290
    241 HB2        -1.7932   -4.9807   -3.3765 H       8  LEU8        0.0290
    242 HG         -3.8033   -6.1844   -5.3590 H       8  LEU8        0.0296
    243 HD11       -2.4443   -7.3979   -2.8927 H       8  LEU8        0.0232
    244 HD12       -4.1495   -6.9079   -3.0027 H       8  LEU8        0.0232
    245 HD13       -3.5471   -8.2341   -3.9988 H       8  LEU8        0.0232
    246 HD21       -1.6076   -6.2409   -6.4311 H       8  LEU8        0.0232
    247 HD22       -0.8289   -6.7786   -4.9314 H       8  LEU8        0.0232
    248 HD23       -1.9341   -7.8571   -5.8042 H       8  LEU8        0.0232
    249 HB         -2.4742    0.1522   -4.8025 H       7  VAL7        0.0318
    250 HG11       -1.2385   -0.2425   -6.9151 H       7  VAL7        0.0233
    251 HG12       -1.8530    1.4046   -6.8310 H       7  VAL7        0.0233
    252 HG13       -0.1372    1.0951   -6.5423 H       7  VAL7        0.0233
    253 HG21       -2.1325    2.5667   -4.5932 H       7  VAL7        0.0233
    254 HG22       -0.4140    2.3439   -4.2542 H       7  VAL7        0.0233
    255 HG23       -1.6210    1.7607   -3.0996 H       7  VAL7        0.0233
    256 HB1         3.4120   -2.0094   -3.5249 H       6  ALA6        0.0252
    257 HB2         3.4362   -1.2791   -5.1222 H       6  ALA6        0.0252
    258 HB3         4.8654   -1.1592   -4.0870 H       6  ALA6        0.0252
    259 HB1         6.1077    3.6001   -1.6780 H       5  SER5        0.0580
    260 HB2         5.6936    3.7361    0.0277 H       5  SER5        0.0580
    261 H           4.0584    3.8587   -2.2102 H       5  SER5        0.2095
    262 HB          8.8870   -0.2058   -0.4746 H       4  THR4        0.0614
    263 HG1         9.3462   -2.2942   -0.0790 H       4  THR4        0.2099
    264 HG21       10.7143    0.8957    0.8392 H       4  THR4        0.0255
    265 HG22       10.6897   -0.4499    1.9979 H       4  THR4        0.0255
    266 HG23       11.1884   -0.7458    0.3409 H       4  THR4        0.0255
    267 HB          8.6833   -2.2828    4.6947 H       3  ILE3        0.0321
    268 HG21        7.0720   -2.6257    7.2631 H       3  ILE3        0.0233
    269 HG22        8.7501   -2.0634    7.1521 H       3  ILE3        0.0233
    270 HG23        8.3353   -3.7078    6.6637 H       3  ILE3        0.0233
    271 HG11        6.2377   -2.5584    3.6746 H       3  ILE3        0.0266
    272 HG12        5.9244   -3.3898    5.1996 H       3  ILE3        0.0266
    273 HD11        8.1195   -4.0950    3.1947 H       3  ILE3        0.0230
    274 HD12        6.6291   -5.0043    3.4954 H       3  ILE3        0.0230
    275 HD13        7.8762   -4.9173    4.7489 H       3  ILE3        0.0230
    276 HB1         4.7063   -0.0410    8.8953 H       2  SER2        0.0580
    277 HB2         5.5645    1.3620    8.2014 H       2  SER2        0.0580
    278 H           4.0307    1.9308    9.7660 H       2  SER2        0.2095
    279 HB          0.5974   -0.7120    8.9918 H       1  THR1        0.0652
    280 HG1         0.9589   -2.9563    9.1982 H       1  THR1        0.2100
    281 HG21       -1.2976   -2.1562    9.5305 H       1  THR1        0.0257
    282 HG22       -1.5363   -2.6056    7.8503 H       1  THR1        0.0257
    283 HG23       -1.8700   -0.9304    8.3835 H       1  THR1        0.0257
@<TRIPOS>BOND
     1     1     2    1
     2     2     3    1
     3     3     4    2
     4     3     5   am
     5     5     6    1
     6     6     7    1
     7     7     8    2
     8     7     9   am
     9     9    10    1
    10    10    11    1
    11    11    12    2
    12    11    13   am
    13    13    14    1
    14    14    15    1
    15    15    16    2
    16    15    17   am
    17    17    18    1
    18    18    19    1
    19    19    20    2
    20    19    21   am
    21    21    22    1
    22    22    23    1
    23    23    24    2
    24    23    25   am
    25    25    26    1
    26    26    27    1
    27    27    28    2
    28    27    29   am
    29    29    30    1
    30    30    31    1
    31    31    32    2
    32    31    33   am
    33    33    34    1
    34    34    35    1
    35    35    36    2
    36    35    37   am
    37    37    38    1
    38    38    39    1
    39    39    40    2
    40    39    41   am
    41    41    42    1
    42    42    43    1
    43    43    44    2
    44    43    45   am
    45    45    46    1
    46    46    47    1
    47    47    48    2
    48    47    49   am
    49    49    50    1
    50    50    51    1
    51    51    52    2
    52    51    53   am
    53    53    54    1
    54    54    55    1
    55    55    56    2
    56    55    57   am
    57    57    58    1
    58    58    59    1
    59    59    60    2
    60    59    61   am
    61    61    62    1
    62    62    63    1
    63    63    64    2
    64    63    65   am
    65    65    66    1
    66    66    67    1
    67    67    68    2
    68    67    69   am
    69    69    70    1
    70    70    71    1
    71    71    72    1
    72    72    73    1
    73    73    74    1
    74    74    75    1
    75    74    76    1
    76    66    77    1
    77    77    78    1
    78    78    79   ar
    79    79    80   ar
    80    80    81   ar
    81    81    82   ar
    82    82    83   ar
    83    62    84    1
    84    58    85    1
    85    85    86    1
    86    86    87    1
    87    87    88    1
    88    54    89    1
    89    89    90    1
    90    90    91    1
    91    91    92    1
    92    92    93    1
    93    50    94    1
    94    94    95    1
    95    95    96    1
    96    96    97    1
    97    97    98    1
    98    98    99    1
    99    98   100    1
   100    46   101    1
   101   101   102    1
   102   102   103   ar
   103   103   104   ar
   104   104   105   ar
   105   105   106   ar
   106   106   107   ar
   107    38   108    1
   108   108   109    1
   109    34   110    1
   110   110   111    1
   111   111   112    1
   112   112   113    2
   113   112   114   am
   114    30   115    1
   115   115   116    1
   116   116   117    1
   117   116   118    1
   118    26   119    1
   119   119   120    1
   120   119   121    1
   121    22   122    1
   122    18   123    1
   123   123   124    1
   124    14   125    1
   125   125   126    1
   126   125   127    1
   127    10   128    1
   128   128   129    1
   129   128   130    1
   130   130   131    1
   131     6   132    1
   132   132   133    1
   133     2   134    1
   134   134   135    1
   135   134   136    1
   136    73    69    1
   137    83    78   ar
   138   107   102   ar
   139     1   137    1
   140     1   138    1
   141     1   139    1
   142     2   140    1
   143     5   141    1
   144     6   142    1
   145     9   143    1
   146    10   144    1
   147    13   145    1
   148    14   146    1
   149    17   147    1
   150    18   148    1
   151    21   149    1
   152    22   150    1
   153    25   151    1
   154    26   152    1
   155    29   153    1
   156    30   154    1
   157    33   155    1
   158    34   156    1
   159    37   157    1
   160    38   158    1
   161    41   159    1
   162    42   160    1
   163    42   161    1
   164    45   162    1
   165    46   163    1
   166    49   164    1
   167    50   165    1
   168    53   166    1
   169    54   167    1
   170    57   168    1
   171    58   169    1
   172    61   170    1
   173    62   171    1
   174    65   172    1
   175    66   173    1
   176    70   174    1
   177    70   175    1
   178    71   176    1
   179    71   177    1
   180    72   178    1
   181    72   179    1
   182    73   180    1
   183    74   181    1
   184    75   182    1
   185    76   183    1
   186    77   184    1
   187    77   185    1
   188    79   186    1
   189    80   187    1
   190    81   188    1
   191    82   189    1
   192    83   190    1
   193    84   191    1
   194    84   192    1
   195    84   193    1
   196    85   194    1
   197    85   195    1
   198    86   196    1
   199    86   197    1
   200    88   198    1
   201    88   199    1
   202    88   200    1
   203    89   201    1
   204    89   202    1
   205    90   203    1
   206    90   204    1
   207    91   205    1
   208    91   206    1
   209    92   207    1
   210    92   208    1
   211    93   209    1
   212    93   210    1
   213    93   211    1
   214    94   212    1
   215    94   213    1
   216    95   214    1
   217    95   215    1
   218    96   216    1
   219    96   217    1
   220    97   218    1
   221    98   219    1
   222    99   220    1
   223    99   221    1
   224   100   222    1
   225   100   223    1
   226   101   224    1
   227   101   225    1
   228   103   226    1
   229   104   227    1
   230   105   228    1
   231   106   229    1
   232   107   230    1
   233   108   231    1
   234   108   232    1
   235   109   233    1
   236   110   234    1
   237   110   235    1
   238   111   236    1
   239   111   237    1
   240   114   238    1
   241   114   239    1
   242   115   240    1
   243   115   241    1
   244   116   242    1
   245   117   243    1
   246   117   244    1
   247   117   245    1
   248   118   246    1
   249   118   247    1
   250   118   248    1
   251   119   249    1
   252   120   250    1
   253   120   251    1
   254   120   252    1
   255   121   253    1
   256   121   254    1
   257   121   255    1
   258   122   256    1
   259   122   257    1
   260   122   258    1
   261   123   259    1
   262   123   260    1
   263   124   261    1
   264   125   262    1
   265   126   263    1
   266   127   264    1
   267   127   265    1
   268   127   266    1
   269   128   267    1
   270   129   268    1
   271   129   269    1
   272   129   270    1
   273   130   271    1
   274   130   272    1
   275   131   273    1
   276   131   274    1
   277   131   275    1
   278   132   276    1
   279   132   277    1
   280   133   278    1
   281   134   279    1
   282   135   280    1
   283   136   281    1
   284   136   282    1
   285   136   283    1
