REMARK  Name = *****Nini
REMARK  85 active torsions:
REMARK  status: ('A' for Active; 'I' for Inactive)
REMARK    1  A    between atoms: N_1  and  CA_2
REMARK    2  A    between atoms: CA_2  and  C_3
REMARK    3  A    between atoms: CA_2  and  CB_134
REMARK    4  A    between atoms: N_5  and  CA_6
REMARK    5  A    between atoms: CA_6  and  C_7
REMARK    6  A    between atoms: CA_6  and  CB_132
REMARK    7  A    between atoms: N_9  and  CA_10
REMARK    8  A    between atoms: CA_10  and  C_11
REMARK    9  A    between atoms: CA_10  and  CB_128
REMARK   10  A    between atoms: N_13  and  CA_14
REMARK   11  A    between atoms: CA_14  and  C_15
REMARK   12  A    between atoms: CA_14  and  CB_125
REMARK   13  A    between atoms: N_17  and  CA_18
REMARK   14  A    between atoms: CA_18  and  C_19
REMARK   15  A    between atoms: CA_18  and  CB_123
REMARK   16  A    between atoms: N_21  and  CA_22
REMARK   17  A    between atoms: CA_22  and  C_23
REMARK   18  A    between atoms: CA_22  and  CB_122
REMARK   19  A    between atoms: N_25  and  CA_26
REMARK   20  A    between atoms: CA_26  and  C_27
REMARK   21  A    between atoms: CA_26  and  CB_119
REMARK   22  A    between atoms: N_29  and  CA_30
REMARK   23  A    between atoms: CA_30  and  C_31
REMARK   24  A    between atoms: CA_30  and  CB_115
REMARK   25  A    between atoms: N_33  and  CA_34
REMARK   26  A    between atoms: CA_34  and  C_35
REMARK   27  A    between atoms: CA_34  and  CB_110
REMARK   28  A    between atoms: N_37  and  CA_38
REMARK   29  A    between atoms: CA_38  and  C_39
REMARK   30  A    between atoms: CA_38  and  CB_108
REMARK   31  A    between atoms: N_41  and  CA_42
REMARK   32  A    between atoms: CA_42  and  C_43
REMARK   33  A    between atoms: N_45  and  CA_46
REMARK   34  A    between atoms: CA_46  and  C_47
REMARK   35  A    between atoms: CA_46  and  CB_101
REMARK   36  A    between atoms: N_49  and  CA_50
REMARK   37  A    between atoms: CA_50  and  C_51
REMARK   38  A    between atoms: CA_50  and  CB_94
REMARK   39  A    between atoms: N_53  and  CA_54
REMARK   40  A    between atoms: CA_54  and  C_55
REMARK   41  A    between atoms: CA_54  and  CB_89
REMARK   42  A    between atoms: N_57  and  CA_58
REMARK   43  A    between atoms: CA_58  and  C_59
REMARK   44  A    between atoms: CA_58  and  CB_85
REMARK   45  A    between atoms: N_61  and  CA_62
REMARK   46  A    between atoms: CA_62  and  C_63
REMARK   47  A    between atoms: CA_62  and  CB_84
REMARK   48  A    between atoms: N_65  and  CA_66
REMARK   49  A    between atoms: CA_66  and  C_67
REMARK   50  A    between atoms: CA_66  and  CB_77
REMARK   51  A    between atoms: CA_73  and  C_74
REMARK   52  A    between atoms: C_74  and  O_75
REMARK   53  A    between atoms: C_74  and  OXT_76
REMARK   54  A    between atoms: CB_77  and  CG_78
REMARK   55  A    between atoms: CB_85  and  CG_86
REMARK   56  A    between atoms: CG_86  and  SD_87
REMARK   57  A    between atoms: SD_87  and  CE_88
REMARK   58  A    between atoms: CB_89  and  CG_90
REMARK   59  A    between atoms: CG_90  and  CD_91
REMARK   60  A    between atoms: CD_91  and  CE_92
REMARK   61  A    between atoms: CE_92  and  NZ_93
REMARK   62  A    between atoms: CB_94  and  CG_95
REMARK   63  A    between atoms: CG_95  and  CD_96
REMARK   64  A    between atoms: CD_96  and  NE_97
REMARK   65  A    between atoms: NE_97  and  CZ_98
REMARK   66  A    between atoms: CZ_98  and  NH1_99
REMARK   67  A    between atoms: CZ_98  and  NH2_100
REMARK   68  A    between atoms: CB_101  and  CG_102
REMARK   69  A    between atoms: CB_108  and  OG_109
REMARK   70  A    between atoms: CB_110  and  CG_111
REMARK   71  A    between atoms: CG_111  and  CD_112
REMARK   72  A    between atoms: CB_115  and  CG_116
REMARK   73  A    between atoms: CG_116  and  CD1_117
REMARK   74  A    between atoms: CG_116  and  CD2_118
REMARK   75  A    between atoms: CB_119  and  CG1_120
REMARK   76  A    between atoms: CB_119  and  CG2_121
REMARK   77  A    between atoms: CB_123  and  OG_124
REMARK   78  A    between atoms: CB_125  and  OG1_126
REMARK   79  A    between atoms: CB_125  and  CG2_127
REMARK   80  A    between atoms: CB_128  and  CG2_129
REMARK   81  A    between atoms: CB_128  and  CG1_130
REMARK   82  A    between atoms: CG1_130  and  CD1_131
REMARK   83  A    between atoms: CB_132  and  OG_133
REMARK   84  A    between atoms: CB_134  and  OG1_135
REMARK   85  A    between atoms: CB_134  and  CG2_136
REMARK                            x       y       z     vdW  Elec       q    Type
REMARK                         _______ _______ _______ _____ _____    ______ ____
ROOT
ATOM      1  CA  SER A  10      -5.494   0.272  -7.719  0.00  0.00    +0.184 C 
ENDROOT
BRANCH   1   3
ATOM      2  C   GLN A   9      -4.663  -1.969  -8.459  0.00  0.00    +0.234 C 
ATOM      3  N   SER A  10      -5.364  -1.182  -7.585  0.00  0.00    -0.301 N 
ATOM      4  H   SER A  10      -5.411  -1.522  -6.627  0.00  0.00    +0.150 HD
ATOM      5  O   GLN A   9      -4.051  -1.502  -9.419  0.00  0.00    -0.274 OA
BRANCH   2   6
ATOM      6  CA  GLN A   9      -4.631  -3.483  -8.137  0.00  0.00    +0.159 C 
BRANCH   6   8
ATOM      7  C   LEU A   8      -3.530  -3.361  -5.893  0.00  0.00    +0.234 C 
ATOM      8  N   GLN A   9      -3.574  -3.826  -7.184  0.00  0.00    -0.302 N 
ATOM      9  H   GLN A   9      -2.675  -4.026  -7.608  0.00  0.00    +0.149 HD
ATOM     10  O   LEU A   8      -4.417  -2.672  -5.396  0.00  0.00    -0.274 OA
BRANCH   7  11
ATOM     11  CA  LEU A   8      -2.283  -3.782  -5.091  0.00  0.00    +0.159 C 
BRANCH  11  13
ATOM     12  C   VAL A   7      -0.690  -1.918  -4.789  0.00  0.00    +0.234 C 
ATOM     13  N   LEU A   8      -1.841  -2.571  -4.399  0.00  0.00    -0.302 N 
ATOM     14  H   LEU A   8      -2.566  -2.043  -3.926  0.00  0.00    +0.149 HD
ATOM     15  O   VAL A   7       0.132  -2.410  -5.563  0.00  0.00    -0.274 OA
BRANCH  12  16
ATOM     16  CA  VAL A   7      -0.512  -0.505  -4.196  0.00  0.00    +0.161 C 
BRANCH  16  18
ATOM     17  C   ALA A   6       1.706   0.044  -3.221  0.00  0.00    +0.234 C 
ATOM     18  N   VAL A   7       0.907  -0.164  -4.319  0.00  0.00    -0.302 N 
ATOM     19  H   VAL A   7       1.348  -0.477  -5.179  0.00  0.00    +0.149 HD
ATOM     20  O   ALA A   6       1.238   0.179  -2.083  0.00  0.00    -0.274 OA
BRANCH  17  21
ATOM     21  CA  ALA A   6       3.223   0.147  -3.505  0.00  0.00    +0.156 C 
ATOM     22  CB  ALA A   6       3.771  -1.145  -4.088  0.00  0.00    +0.037 C 
BRANCH  21  24
ATOM     23  C   SER A   5       5.076   1.147  -2.147  0.00  0.00    +0.236 C 
ATOM     24  N   ALA A   6       3.867   0.498  -2.239  0.00  0.00    -0.303 N 
ATOM     25  H   ALA A   6       3.490   0.039  -1.413  0.00  0.00    +0.149 HD
ATOM     26  O   SER A   5       5.840   1.300  -3.099  0.00  0.00    -0.274 OA
BRANCH  23  27
ATOM     27  CA  SER A   5       5.358   1.745  -0.765  0.00  0.00    +0.184 C 
BRANCH  27  29
ATOM     28  C   THR A   4       6.654   0.368   0.839  0.00  0.00    +0.236 C 
ATOM     29  N   SER A   5       6.622   1.271  -0.210  0.00  0.00    -0.300 N 
ATOM     30  H   SER A   5       7.466   1.526  -0.704  0.00  0.00    +0.150 HD
ATOM     31  O   THR A   4       5.644  -0.212   1.240  0.00  0.00    -0.274 OA
BRANCH  28  32
ATOM     32  CA  THR A   4       8.045   0.226   1.505  0.00  0.00    +0.187 C 
BRANCH  32  34
ATOM     33  C   ILE A   3       7.370   0.111   3.878  0.00  0.00    +0.234 C 
ATOM     34  N   THR A   4       7.957  -0.473   2.785  0.00  0.00    -0.300 N 
ATOM     35  H   THR A   4       7.971  -1.486   2.701  0.00  0.00    +0.150 HD
ATOM     36  O   ILE A   3       6.942   1.269   3.844  0.00  0.00    -0.274 OA
BRANCH  33  37
ATOM     37  CA  ILE A   3       7.429  -0.656   5.219  0.00  0.00    +0.162 C 
BRANCH  37  39
ATOM     38  C   SER A   2       5.051  -0.462   6.062  0.00  0.00    +0.236 C 
ATOM     39  N   ILE A   3       6.375  -0.117   6.101  0.00  0.00    -0.302 N 
ATOM     40  H   ILE A   3       6.543   0.865   6.277  0.00  0.00    +0.149 HD
ATOM     41  O   SER A   2       4.582  -1.399   5.415  0.00  0.00    -0.274 OA
BRANCH  38  42
ATOM     42  CA  SER A   2       4.089   0.458   6.862  0.00  0.00    +0.184 C 
BRANCH  42  44
ATOM     43  C   THR A   1       1.578   0.245   6.809  0.00  0.00    +0.264 C 
ATOM     44  N   SER A   2       2.826  -0.297   6.980  0.00  0.00    -0.297 N 
ATOM     45  H   SER A   2       2.944  -1.302   7.125  0.00  0.00    +0.150 HD
ATOM     46  O   THR A   1       1.374   1.451   6.656  0.00  0.00    -0.270 OA
BRANCH  43  47
ATOM     47  CA  THR A   1       0.425  -0.789   6.804  0.00  0.00    +0.177 C 
BRANCH  47  48
ATOM     48  N   THR A   1       0.694  -1.915   5.834  0.00  0.00    +0.229 N 
ATOM     49  H1  THR A   1       1.121  -2.705   6.357  0.00  0.00    +0.200 HD
ATOM     50  H2  THR A   1      -0.162  -2.268   5.396  0.00  0.00    +0.200 HD
ATOM     51  H3  THR A   1       1.345  -1.667   5.064  0.00  0.00    +0.200 HD
ENDBRANCH  47  48
BRANCH  47  52
ATOM     52  CB  THR A   1       0.246  -1.404   8.215  0.00  0.00    +0.169 C 
ATOM     53  CG2 THR A   1      -1.202  -1.788   8.502  0.00  0.00    +0.044 C 
BRANCH  52  54
ATOM     54  OG1 THR A   1       1.052  -2.599   8.282  0.00  0.00    -0.386 OA
ATOM     55  HG1 THR A   1       0.959  -2.956   9.198  0.00  0.00    +0.210 HD
ENDBRANCH  52  54
ENDBRANCH  47  52
ENDBRANCH  43  47
ENDBRANCH  42  44
BRANCH  42  56
ATOM     56  CB  SER A   2       4.601   0.845   8.255  0.00  0.00    +0.187 C 
BRANCH  56  57
ATOM     57  OG  SER A   2       3.668   1.748   8.872  0.00  0.00    -0.393 OA
ATOM     58  H   SER A   2       4.031   1.931   9.766  0.00  0.00    +0.209 HD
ENDBRANCH  56  57
ENDBRANCH  42  56
ENDBRANCH  38  42
ENDBRANCH  37  39
BRANCH  37  59
ATOM     59  CB  ILE A   3       7.728  -2.174   5.226  0.00  0.00    +0.015 C 
ATOM     60  CG2 ILE A   3       7.982  -2.673   6.659  0.00  0.00    +0.010 C 
BRANCH  59  61
ATOM     61  CG1 ILE A   3       6.716  -3.084   4.508  0.00  0.00    +0.002 C 
ATOM     62  CD1 ILE A   3       7.377  -4.347   3.958  0.00  0.00    +0.004 C 
ENDBRANCH  59  61
ENDBRANCH  37  59
ENDBRANCH  33  37
ENDBRANCH  32  34
BRANCH  32  63
ATOM     63  CB  THR A   4       9.050  -0.483   0.573  0.00  0.00    +0.141 C 
ATOM     64  CG2 THR A   4      10.495  -0.170   0.960  0.00  0.00    +0.040 C 
BRANCH  63  65
ATOM     65  OG1 THR A   4       8.873  -1.902   0.685  0.00  0.00    -0.390 OA
ATOM     66  HG1 THR A   4       9.346  -2.294  -0.079  0.00  0.00    +0.210 HD
ENDBRANCH  63  65
ENDBRANCH  32  63
ENDBRANCH  28  32
ENDBRANCH  27  29
BRANCH  27  67
ATOM     67  CB  SER A   5       5.386   3.277  -0.917  0.00  0.00    +0.187 C 
BRANCH  67  68
ATOM     68  OG  SER A   5       4.101   3.803  -1.237  0.00  0.00    -0.393 OA
ATOM     69  H   SER A   5       4.058   3.859  -2.210  0.00  0.00    +0.209 HD
ENDBRANCH  67  68
ENDBRANCH  27  67
ENDBRANCH  23  27
ENDBRANCH  21  24
ENDBRANCH  17  21
ENDBRANCH  16  18
BRANCH  16  70
ATOM     70  CB  VAL A   7      -1.442   0.519  -4.880  0.00  0.00    +0.012 C 
ATOM     71  CG2 VAL A   7      -1.398   1.873  -4.166  0.00  0.00    +0.009 C 
ATOM     72  CG1 VAL A   7      -1.147   0.704  -6.371  0.00  0.00    +0.009 C 
ENDBRANCH  16  70
ENDBRANCH  12  16
ENDBRANCH  11  13
BRANCH  11  73
ATOM     73  CB  LEU A   8      -2.630  -4.883  -4.082  0.00  0.00    +0.034 C 
BRANCH  73  74
ATOM     74  CG  LEU A   8      -2.933  -6.268  -4.698  0.00  0.00    -0.015 C 
ATOM     75  CD2 LEU A   8      -1.756  -6.817  -5.510  0.00  0.00    +0.007 C 
ATOM     76  CD1 LEU A   8      -3.287  -7.256  -3.582  0.00  0.00    +0.007 C 
ENDBRANCH  73  74
ENDBRANCH  11  73
ENDBRANCH   7  11
ENDBRANCH   6   8
BRANCH   6  77
ATOM     77  CB  GLN A   9      -5.997  -4.167  -7.946  0.00  0.00    +0.041 C 
BRANCH  77  78
ATOM     78  CG  GLN A   9      -6.733  -3.964  -6.624  0.00  0.00    +0.098 C 
BRANCH  78  79
ATOM     79  CD  GLN A   9      -8.127  -4.545  -6.646  0.00  0.00    +0.211 C 
ATOM     80  NE2 GLN A   9      -8.793  -4.411  -5.460  0.00  0.00    -0.329 N 
ATOM     81 HE21 GLN A   9      -9.756  -4.722  -5.420  0.00  0.00    +0.145 HD
ATOM     82 HE22 GLN A   9      -8.445  -3.827  -4.712  0.00  0.00    +0.145 HD
ATOM     83  OE1 GLN A   9      -8.640  -5.085  -7.617  0.00  0.00    -0.276 OA
ENDBRANCH  78  79
ENDBRANCH  77  78
ENDBRANCH   6  77
ENDBRANCH   2   6
ENDBRANCH   1   3
BRANCH   1  84
ATOM     84  C   SER A  10      -6.384   0.782  -6.566  0.00  0.00    +0.236 C 
ATOM     85  N   GLY A  11      -6.569   2.142  -6.531  0.00  0.00    -0.305 N 
ATOM     86  H   GLY A  11      -5.899   2.729  -7.019  0.00  0.00    +0.149 HD
ATOM     87  O   SER A  10      -6.895   0.025  -5.739  0.00  0.00    -0.274 OA
BRANCH  85  88
ATOM     88  CA  GLY A  11      -7.306   2.778  -5.457  0.00  0.00    +0.200 C 
BRANCH  88  89
ATOM     89  C   GLY A  11      -6.348   3.374  -4.426  0.00  0.00    +0.231 C 
ATOM     90  N   PHE A  12      -6.977   4.082  -3.428  0.00  0.00    -0.302 N 
ATOM     91  H   PHE A  12      -7.992   4.151  -3.406  0.00  0.00    +0.149 HD
ATOM     92  O   GLY A  11      -5.128   3.259  -4.497  0.00  0.00    -0.274 OA
BRANCH  90  93
ATOM     93  CA  PHE A  12      -6.231   4.968  -2.546  0.00  0.00    +0.163 C 
BRANCH  93  94
ATOM     94  C   PHE A  12      -6.809   4.824  -1.130  0.00  0.00    +0.234 C 
ATOM     95  N   ARG A  13      -5.869   4.593  -0.148  0.00  0.00    -0.302 N 
ATOM     96  H   ARG A  13      -4.891   4.635  -0.411  0.00  0.00    +0.149 HD
ATOM     97  O   PHE A  12      -8.012   4.920  -0.893  0.00  0.00    -0.274 OA
BRANCH  95  98
ATOM     98  CA  ARG A  13      -6.209   4.633   1.277  0.00  0.00    +0.159 C 
BRANCH  98  99
ATOM     99  C   ARG A  13      -4.859   4.710   2.003  0.00  0.00    +0.234 C 
ATOM    100  N   LYS A  14      -4.040   3.609   1.817  0.00  0.00    -0.302 N 
ATOM    101  H   LYS A  14      -4.287   2.966   1.068  0.00  0.00    +0.149 HD
ATOM    102  O   ARG A  13      -4.493   5.693   2.644  0.00  0.00    -0.274 OA
BRANCH 100 103
ATOM    103  CA  LYS A  14      -2.623   3.718   2.136  0.00  0.00    +0.159 C 
BRANCH 103 104
ATOM    104  C   LYS A  14      -1.863   2.701   1.240  0.00  0.00    +0.234 C 
ATOM    105  N   MET A  15      -0.543   2.545   1.573  0.00  0.00    -0.302 N 
ATOM    106  H   MET A  15      -0.358   2.505   2.564  0.00  0.00    +0.149 HD
ATOM    107  O   LYS A  14      -2.390   2.156   0.276  0.00  0.00    -0.274 OA
BRANCH 105 108
ATOM    108  CA  MET A  15       0.381   1.729   0.779  0.00  0.00    +0.160 C 
BRANCH 108 109
ATOM    109  C   MET A  15       0.441   0.298   1.360  0.00  0.00    +0.234 C 
ATOM    110  N   ALA A  16       0.948  -0.639   0.503  0.00  0.00    -0.303 N 
ATOM    111  H   ALA A  16       1.094  -0.394  -0.490  0.00  0.00    +0.149 HD
ATOM    112  O   MET A  15       0.149   0.051   2.534  0.00  0.00    -0.274 OA
BRANCH 110 113
ATOM    113  CA  ALA A  16       1.128  -2.037   0.852  0.00  0.00    +0.156 C 
ATOM    114  CB  ALA A  16      -0.092  -2.852   0.434  0.00  0.00    +0.037 C 
BRANCH 113 115
ATOM    115  C   ALA A  16       2.391  -2.599   0.180  0.00  0.00    +0.234 C 
ATOM    116  N   PHE A  17       2.912  -3.685   0.838  0.00  0.00    -0.302 N 
ATOM    117  H   PHE A  17       2.492  -4.010   1.706  0.00  0.00    +0.149 HD
ATOM    118  O   ALA A  16       2.860  -2.142  -0.860  0.00  0.00    -0.274 OA
BRANCH 116 119
ATOM    119  CA  PHE A  17       4.008  -4.546   0.350  0.00  0.00    +0.163 C 
BRANCH 119 120
ATOM    120  C   PHE A  17       4.073  -5.665   1.414  0.00  0.00    +0.237 C 
ATOM    121  N   PRO A  18       4.678  -6.864   1.141  0.00  0.00    -0.292 N 
ATOM    122  CA  PRO A  18       5.196  -7.382  -0.147  0.00  0.00    +0.132 C 
ATOM    123  CB  PRO A  18       6.186  -8.461   0.306  0.00  0.00    +0.029 C 
ATOM    124  CG  PRO A  18       5.549  -9.039   1.567  0.00  0.00    +0.021 C 
ATOM    125  CD  PRO A  18       4.893  -7.826   2.211  0.00  0.00    +0.108 C 
ATOM    126  O   PHE A  17       3.617  -5.431   2.549  0.00  0.00    -0.274 OA
BRANCH 122 127
ATOM    127  C   PRO A  18       4.114  -7.956  -1.120  0.00  0.00    +0.264 C 
BRANCH 127 128
ATOM    128  OXT PRO A  18       3.301  -8.928  -0.496  0.00  0.00    -0.366 OA
ATOM    129  HXT PRO A  18       2.940  -9.479  -1.213  0.00  0.00    +0.212 HD
ENDBRANCH 127 128
BRANCH 127 130
ATOM    130  O   PRO A  18       3.271  -6.927  -1.594  0.00  0.00    -0.366 OA
ATOM    131  H   PRO A  18       3.044  -7.145  -2.511  0.00  0.00    +0.212 HD
ENDBRANCH 127 130
ENDBRANCH 122 127
ENDBRANCH 119 120
BRANCH 119 132
ATOM    132  CB  PHE A  17       5.352  -3.792   0.256  0.00  0.00    +0.067 C 
BRANCH 132 133
ATOM    133  CG  PHE A  17       6.133  -4.003  -1.023  0.00  0.00    -0.045 A 
ATOM    134  CD2 PHE A  17       5.520  -3.895  -2.282  0.00  0.00    +0.003 A 
ATOM    135  CE2 PHE A  17       6.267  -4.022  -3.452  0.00  0.00    +0.000 A 
ATOM    136  CZ  PHE A  17       7.640  -4.248  -3.384  0.00  0.00    +0.000 A 
ATOM    137  CE1 PHE A  17       8.258  -4.365  -2.145  0.00  0.00    +0.000 A 
ATOM    138  CD1 PHE A  17       7.511  -4.249  -0.975  0.00  0.00    +0.003 A 
ENDBRANCH 132 133
ENDBRANCH 119 132
ENDBRANCH 116 119
ENDBRANCH 113 115
ENDBRANCH 110 113
ENDBRANCH 108 109
BRANCH 108 139
ATOM    139  CB  MET A  15       1.773   2.385   0.805  0.00  0.00    +0.042 C 
BRANCH 139 140
ATOM    140  CG  MET A  15       2.401   2.363   2.208  0.00  0.00    +0.071 C 
BRANCH 140 141
ATOM    141  SD  MET A  15       3.763   3.523   2.526  0.00  0.00    -0.164 S 
ATOM    142  CE  MET A  15       2.992   5.091   2.053  0.00  0.00    +0.084 C 
ENDBRANCH 140 141
ENDBRANCH 139 140
ENDBRANCH 108 139
ENDBRANCH 105 108
ENDBRANCH 103 104
BRANCH 103 143
ATOM    143  CB  LYS A  14      -2.371   3.531   3.643  0.00  0.00    +0.032 C 
BRANCH 143 144
ATOM    144  CG  LYS A  14      -1.249   4.455   4.149  0.00  0.00    +0.007 C 
BRANCH 144 145
ATOM    145  CD  LYS A  14      -0.645   3.946   5.456  0.00  0.00    +0.051 C 
BRANCH 145 146
ATOM    146  CE  LYS A  14       0.578   4.759   5.866  0.00  0.00    +0.127 C 
BRANCH 146 147
ATOM    147  NZ  LYS A  14       1.212   4.119   7.039  0.00  0.00    +0.218 N 
ATOM    148  HZ1 LYS A  14       0.617   4.158   7.873  0.00  0.00    +0.199 HD
ATOM    149  HZ2 LYS A  14       1.424   3.115   6.866  0.00  0.00    +0.199 HD
ATOM    150  HZ3 LYS A  14       2.114   4.563   7.277  0.00  0.00    +0.199 HD
ENDBRANCH 146 147
ENDBRANCH 145 146
ENDBRANCH 144 145
ENDBRANCH 143 144
ENDBRANCH 103 143
ENDBRANCH 100 103
ENDBRANCH  98  99
BRANCH  98 151
ATOM    151  CB  ARG A  13      -7.045   3.422   1.720  0.00  0.00    +0.033 C 
BRANCH 151 152
ATOM    152  CG  ARG A  13      -7.297   3.347   3.231  0.00  0.00    +0.018 C 
BRANCH 152 153
ATOM    153  CD  ARG A  13      -8.161   4.489   3.770  0.00  0.00    +0.092 C 
BRANCH 153 154
ATOM    154  NE  ARG A  13      -8.299   4.311   5.210  0.00  0.00    -0.231 NA
ATOM    155  HE  ARG A  13      -7.382   4.379   5.643  0.00  0.00    +0.133 HD
BRANCH 154 156
ATOM    156  CZ  ARG A  13      -9.131   5.201   5.953  0.00  0.00    +0.282 C 
BRANCH 156 157
ATOM    157  NH1 ARG A  13      -8.506   6.470   5.991  0.00  0.00    +0.368 NA
ATOM    158 HH11 ARG A  13      -8.565   6.892   5.071  0.00  0.00    +0.243 HD
ATOM    159 HH12 ARG A  13      -9.040   7.072   6.610  0.00  0.00    +0.243 HD
ENDBRANCH 156 157
BRANCH 156 160
ATOM    160  NH2 ARG A  13     -10.399   5.371   5.361  0.00  0.00    +0.368 NA
ATOM    161 HH21 ARG A  13     -10.326   5.857   4.477  0.00  0.00    +0.243 HD
ATOM    162 HH22 ARG A  13     -10.988   5.934   5.965  0.00  0.00    +0.243 HD
ENDBRANCH 156 160
ENDBRANCH 154 156
ENDBRANCH 153 154
ENDBRANCH 152 153
ENDBRANCH 151 152
ENDBRANCH  98 151
ENDBRANCH  95  98
ENDBRANCH  93  94
BRANCH  93 163
ATOM    163  CB  PHE A  12      -6.344   6.449  -2.967  0.00  0.00    +0.067 C 
BRANCH 163 164
ATOM    164  CG  PHE A  12      -6.046   6.700  -4.427  0.00  0.00    -0.045 A 
ATOM    165  CD2 PHE A  12      -7.080   7.062  -5.301  0.00  0.00    +0.003 A 
ATOM    166  CE2 PHE A  12      -6.830   7.242  -6.661  0.00  0.00    +0.000 A 
ATOM    167  CZ  PHE A  12      -5.546   7.065  -7.159  0.00  0.00    +0.000 A 
ATOM    168  CE1 PHE A  12      -4.506   6.721  -6.299  0.00  0.00    +0.000 A 
ATOM    169  CD1 PHE A  12      -4.755   6.541  -4.940  0.00  0.00    +0.003 A 
ENDBRANCH 163 164
ENDBRANCH  93 163
ENDBRANCH  90  93
ENDBRANCH  88  89
ENDBRANCH  85  88
ENDBRANCH   1  84
BRANCH   1 170
ATOM    170  CB  SER A  10      -6.081   0.687  -9.084  0.00  0.00    +0.187 C 
BRANCH 170 171
ATOM    171  OG  SER A  10      -5.032   0.880 -10.041  0.00  0.00    -0.393 OA
ATOM    172  H   SER A  10      -4.535   0.028 -10.087  0.00  0.00    +0.209 HD
ENDBRANCH 170 171
ENDBRANCH   1 170
TORSDOF 74
